 &time_control
 run_days                            = 0,
 run_hours                           = 0,
 run_minutes                         = 0,
 run_seconds                         = 0,
 start_year                          = 2013,   2013,  2013,
 start_month                         = 01,  01, 01,
 start_day                           = 05,    05,   05,
 start_hour                          = 12,  12, 12,
 start_minute                        = 00,   00,   00,
 start_second                        = 00,   00,   00,
 end_year                            = 2013,   2013,  2013,
 end_month                           = 01,  01, 01,
 end_day                             = 07,    07,   07,
 end_hour                            = 00,   00,   00,
 end_minute                          = 00,   00,   00,
 end_second                          = 00,   00,   00,
 interval_seconds                    = 21600
 input_from_file                     = .true.,.true.,.true.,
 history_interval                    = 360, 360,  360,
 frames_per_outfile                  = 7, 7, 7,
 restart                             = .false.,
 restart_interval                    = 0,
 override_restart_timers             = .true.,
 write_hist_at_0h_rst                = .true.,
 io_form_history                     = 2
 io_form_restart                     = 2
 io_form_input                       = 2
 io_form_boundary                    = 2
 debug_level                         = 0
 auxinput4_inname                    = "wrflowinp_d<domain>"
 auxinput4_interval                  = 360,     360,    360,
 io_form_auxinput4                   = 2,
 auxhist3_outname                    = "wrfxtrm_d<domain>_<date>"
 io_form_auxhist3                    = 2
 auxhist3_interval                   = 360,     360,    15,
 frames_per_auxhist3                 = 145,  145, 145,
 auxhist22_outname                   = "wrfzl_d<domain>_<date>"
 io_form_auxhist22                   = 2
 auxhist22_interval                  = 360,     360,    15,
 frames_per_auxhist22                = 145,  145, 145,
 output_diagnostics                  = 1,
 /

 &domains
 time_step                           = 150,
 time_step_fract_num                 = 0,
 time_step_fract_den                 = 1,
 max_dom                             = 3,
 s_we                                = 1,     1,     1,
 e_we                                = 100,   141,   181,
 s_sn                                = 1,     1,     1,
 e_sn                                = 100,   121,   191,
 s_vert                              = 1,     1,     1,
 e_vert                              = 40,    40,    40,
 num_metgrid_levels                  = 38
 num_metgrid_soil_levels 	     = 4
 dx                                  = 25000, 5000,  1000,
 dy                                  = 25000, 5000,  1000,
 grid_id                             = 1,     2,     3,
 parent_id                           = 0,     1,     2,
 i_parent_start                      = 1,     38,    40,
 j_parent_start                      = 1,     35,    58,
 parent_grid_ratio                   = 1,     5,     5,
 parent_time_step_ratio              = 1,     5,     5,
 feedback                            = 0,
 smooth_option                       = 0
 /


&physics
mp_physics                          = 6,     6,     6,
ra_lw_physics                       = 1,     1,     1,
ra_sw_physics                       = 1,     1,     1,
radt                                = 15,    15,    15,
cam_abs_freq_s                      = 10800
levsiz                              = 59
paerlev                             = 29
cam_abs_dim1                        = 4
cam_abs_dim2                        = 28
sf_sfclay_physics                   = 1,     1,     1,
sf_surface_physics                  = 2,     2,     2,
bl_pbl_physics                      = 1,     1,     1,
bldt                                = 0,     0,     0,
cu_physics                          = 2,     2,     0,
cudt                                = 5,     5,     5,
isfflx                              = 1,
icloud                              = 1,
surface_input_source                = 1,
num_soil_layers                     = 4,
num_land_cat			                   = 21,
sf_urban_physics                    = 0,
sst_update                          = 1,
tmn_update                          = 1,
lagday                              = 150,
sst_skin                            = 1,
usemonalb                           = .true.,
rdmaxalb                            = .true.,
slope_rad                           = 1,
topo_shading                        = 1,
shadlen                             = 25000.,
prec_acc_dt                         = 60.,60.,60.,60.,60.,
bucket_mm                           = 1000000.,
topo_wind                           = 1,1,1,
/


&fdda
grid_fdda                           = 2,0,0,
gfdda_inname                        = "wrffdda_d<domain>",
gfdda_interval_m                    = 360,
gfdda_end_h                         = 999999999,
xwavenum                            = 5,
ywavenum                            = 5,
if_zfac_uv                          = 1,
k_zfac_uv                           = 19,
if_zfac_t                           = 1,
k_zfac_t                            = 30,
if_zfac_q                           = 1,
k_zfac_q                            = 30,
if_zfac_ph                          = 1,
k_zfac_ph                           = 19,
guv                                 = 0.0003,
gt                                  = 0.000,
gq                                  = 0.000,
gph                                 = 0.0003,
if_ramping                          = 1,
dtramp_min                          = 60.0,
io_form_gfdda                       = 2,
/

&dynamics
rk_ord                              = 3,
w_damping                           = 0,
diff_opt                            = 1,
km_opt                              = 4,
diff_6th_opt                        = 0,
diff_6th_factor                     = 0.12,
base_temp                           = 290.
damp_opt                            = 3,
zdamp                               = 5000.,  5000.,  5000.,
dampcoef                            = 0.2,   0.2,   0.01
khdif                               = 0,      0,      0,
kvdif                               = 0,      0,      0,
non_hydrostatic                     = .true., .true., .true.,
moist_adv_opt                       = 1,      1,      1,
scalar_adv_opt                      = 1,      1,      1,
gwd_opt                             = 1,
/

&bdy_control
spec_bdy_width                      = 5,
spec_zone                           = 1,
relax_zone                          = 4,
specified                           = .true., .false.,.false.,
nested                              = .false., .true., .true.,
/

&grib2
/

&diags
z_lev_diags                         = 1,
num_z_levels                        = 4,
z_levels                            = -80,-100,-120,-150,
/

&namelist_quilt
nio_tasks_per_group = 0,
nio_groups = 1,
/
